instances/data_GOC/Phase_0_Modified_RTS96/scenario_12/powersystem.raw
 0,  100.000000
rts96_spring_wday.raw / File written by to_psse.gms
5 / 19 / 2015
101, ' 101 ',138,2,1,1,1,1.00,0.00,1.1,0.9,1.1,0.9
102, ' 102 ',138,2,1,1,1,1.00,0.00,1.1,0.9,1.1,0.9
103, ' 103 ',138,1,1,1,1,1.00,0.00,1.1,0.9,1.1,0.9
104, ' 104 ',138,1,1,1,1,1.00,0.00,1.1,0.9,1.1,0.9
105, ' 105 ',138,1,1,1,1,1.00,0.00,1.1,0.9,1.1,0.9
106, ' 106 ',138,1,1,1,1,1.00,0.00,1.1,0.9,1.1,0.9
107, ' 107 ',138,2,1,1,1,1.00,0.00,1.1,0.9,1.1,0.9
108, ' 108 ',138,1,1,1,1,1.00,0.00,1.1,0.9,1.1,0.9
109, ' 109 ',138,1,1,1,1,1.00,0.00,1.1,0.9,1.1,0.9
110, ' 110 ',138,1,1,1,1,1.00,0.00,1.1,0.9,1.1,0.9
111, ' 111 ',230,1,1,1,1,1.00,0.00,1.1,0.9,1.1,0.9
112, ' 112 ',230,1,1,1,1,1.00,0.00,1.1,0.9,1.1,0.9
113, ' 113 ',230,3,1,1,1,1.00,0.00,1.1,0.9,1.1,0.9
114, ' 114 ',230,2,1,1,1,1.00,0.00,1.1,0.9,1.1,0.9
115, ' 115 ',230,2,1,1,1,1.00,0.00,1.1,0.9,1.1,0.9
116, ' 116 ',230,2,1,1,1,1.00,0.00,1.1,0.9,1.1,0.9
117, ' 117 ',230,1,1,1,1,1.00,0.00,1.1,0.9,1.1,0.9
118, ' 118 ',230,2,1,1,1,1.00,0.00,1.1,0.9,1.1,0.9
119, ' 119 ',230,1,1,1,1,1.00,0.00,1.1,0.9,1.1,0.9
120, ' 120 ',230,1,1,1,1,1.00,0.00,1.1,0.9,1.1,0.9
121, ' 121 ',230,2,1,1,1,1.00,0.00,1.1,0.9,1.1,0.9
122, ' 122 ',230,2,1,1,1,1.00,0.00,1.1,0.9,1.1,0.9
123, ' 123 ',230,2,1,1,1,1.00,0.00,1.1,0.9,1.1,0.9
124, ' 124 ',230,1,1,1,1,1.00,0.00,1.1,0.9,1.1,0.9
201, ' 201 ',138,2,1,1,1,1.00,0.00,1.1,0.9,1.1,0.9
202, ' 202 ',138,2,1,1,1,1.00,0.00,1.1,0.9,1.1,0.9
203, ' 203 ',138,1,1,1,1,1.00,0.00,1.1,0.9,1.1,0.9
204, ' 204 ',138,1,1,1,1,1.00,0.00,1.1,0.9,1.1,0.9
205, ' 205 ',138,1,1,1,1,1.00,0.00,1.1,0.9,1.1,0.9
206, ' 206 ',138,1,1,1,1,1.00,0.00,1.1,0.9,1.1,0.9
207, ' 207 ',138,2,1,1,1,1.00,0.00,1.1,0.9,1.1,0.9
208, ' 208 ',138,1,1,1,1,1.00,0.00,1.1,0.9,1.1,0.9
209, ' 209 ',138,1,1,1,1,1.00,0.00,1.1,0.9,1.1,0.9
210, ' 210 ',138,1,1,1,1,1.00,0.00,1.1,0.9,1.1,0.9
211, ' 211 ',230,1,1,1,1,1.00,0.00,1.1,0.9,1.1,0.9
212, ' 212 ',230,1,1,1,1,1.00,0.00,1.1,0.9,1.1,0.9
213, ' 213 ',230,2,1,1,1,1.00,0.00,1.1,0.9,1.1,0.9
214, ' 214 ',230,2,1,1,1,1.00,0.00,1.1,0.9,1.1,0.9
215, ' 215 ',230,2,1,1,1,1.00,0.00,1.1,0.9,1.1,0.9
216, ' 216 ',230,2,1,1,1,1.00,0.00,1.1,0.9,1.1,0.9
217, ' 217 ',230,1,1,1,1,1.00,0.00,1.1,0.9,1.1,0.9
218, ' 218 ',230,2,1,1,1,1.00,0.00,1.1,0.9,1.1,0.9
219, ' 219 ',230,1,1,1,1,1.00,0.00,1.1,0.9,1.1,0.9
220, ' 220 ',230,1,1,1,1,1.00,0.00,1.1,0.9,1.1,0.9
221, ' 221 ',230,2,1,1,1,1.00,0.00,1.1,0.9,1.1,0.9
222, ' 222 ',230,2,1,1,1,1.00,0.00,1.1,0.9,1.1,0.9
223, ' 223 ',230,2,1,1,1,1.00,0.00,1.1,0.9,1.1,0.9
224, ' 224 ',230,1,1,1,1,1.00,0.00,1.1,0.9,1.1,0.9
301, ' 301 ',138,2,1,1,1,1.00,0.00,1.1,0.9,1.1,0.9
302, ' 302 ',138,2,1,1,1,1.00,0.00,1.1,0.9,1.1,0.9
303, ' 303 ',138,1,1,1,1,1.00,0.00,1.1,0.9,1.1,0.9
304, ' 304 ',138,1,1,1,1,1.00,0.00,1.1,0.9,1.1,0.9
305, ' 305 ',138,1,1,1,1,1.00,0.00,1.1,0.9,1.1,0.9
306, ' 306 ',138,1,1,1,1,1.00,0.00,1.1,0.9,1.1,0.9
307, ' 307 ',138,2,1,1,1,1.00,0.00,1.1,0.9,1.1,0.9
308, ' 308 ',138,1,1,1,1,1.00,0.00,1.1,0.9,1.1,0.9
309, ' 309 ',138,1,1,1,1,1.00,0.00,1.1,0.9,1.1,0.9
310, ' 310 ',138,1,1,1,1,1.00,0.00,1.1,0.9,1.1,0.9
311, ' 311 ',230,1,1,1,1,1.00,0.00,1.1,0.9,1.1,0.9
312, ' 312 ',230,1,1,1,1,1.00,0.00,1.1,0.9,1.1,0.9
313, ' 313 ',230,2,1,1,1,1.00,0.00,1.1,0.9,1.1,0.9
314, ' 314 ',230,2,1,1,1,1.00,0.00,1.1,0.9,1.1,0.9
315, ' 315 ',230,2,1,1,1,1.00,0.00,1.1,0.9,1.1,0.9
316, ' 316 ',230,2,1,1,1,1.00,0.00,1.1,0.9,1.1,0.9
317, ' 317 ',230,1,1,1,1,1.00,0.00,1.1,0.9,1.1,0.9
318, ' 318 ',230,2,1,1,1,1.00,0.00,1.1,0.9,1.1,0.9
319, ' 319 ',230,1,1,1,1,1.00,0.00,1.1,0.9,1.1,0.9
320, ' 320 ',230,1,1,1,1,1.00,0.00,1.1,0.9,1.1,0.9
321, ' 321 ',230,2,1,1,1,1.00,0.00,1.1,0.9,1.1,0.9
322, ' 322 ',230,2,1,1,1,1.00,0.00,1.1,0.9,1.1,0.9
323, ' 323 ',230,2,1,1,1,1.00,0.00,1.1,0.9,1.1,0.9
324, ' 324 ',230,1,1,1,1,1.00,0.00,1.1,0.9,1.1,0.9
325, ' 325 ',230,1,1,1,1,1.00,0.00,1.1,0.9,1.1,0.9
0 / END OF BUS DATA, BEGIN LOAD DATA
101, '1 ',1,11,11,77.31576472106705,13.698048846260738,0.0,0.0,0.0,0.0,1,1,0
102, '1 ',1,11,12,63.88590007348763,10.359893245272337,0.0,0.0,0.0,0.0,1,1,0
103, '1 ',1,11,11,96.49382138164714,31.38352229628777,0.0,0.0,0.0,0.0,1,1,0
104, '1 ',1,11,11,61.18712413601484,11.33799826410762,0.0,0.0,0.0,0.0,1,1,0
105, '1 ',1,11,11,35.70490078196023,8.599806199833658,0.0,0.0,0.0,0.0,1,1,0
106, '1 ',1,11,12,97.71332403977998,21.334738711429015,0.0,0.0,0.0,0.0,1,1,0
107, '1 ',1,11,12,96.38683008715161,20.895622363012514,0.0,0.0,0.0,0.0,1,1,0
108, '1 ',1,11,12,140.48623006318414,22.397624027085257,0.0,0.0,0.0,0.0,1,1,0
109, '1 ',1,11,13,104.58377875872539,23.380747540750356,0.0,0.0,0.0,0.0,1,1,0
110, '1 ',1,11,13,170.20671212957149,23.006722960403188,0.0,0.0,0.0,0.0,1,1,0
111, '1 ',1,11,13,0.0,0.0,0.0,0.0,0.0,0.0,1,1,0
112, '1 ',1,11,13,0.0,0.0,0.0,0.0,0.0,0.0,1,1,0
113, '1 ',1,12,14,181.73279475152773,38.324213489705514,0.0,0.0,0.0,0.0,1,1,0
114, '1 ',1,12,16,138.50762091222623,22.63148197414549,0.0,0.0,0.0,0.0,1,1,0
115, '1 ',1,12,16,264.55912228142876,32.93026266141236,0.0,0.0,0.0,0.0,1,1,0
116, '1 ',1,12,16,57.69975581801031,14.622340537726878,0.0,0.0,0.0,0.0,1,1,0
117, '1 ',1,12,17,0.0,0.0,0.0,0.0,0.0,0.0,1,1,0
118, '1 ',1,12,17,237.39619063556214,41.507548521408815,0.0,0.0,0.0,0.0,1,1,0
119, '1 ',1,12,15,116.18149547327981,23.668045422290778,0.0,0.0,0.0,0.0,1,1,0
120, '1 ',1,12,15,97.96237693074345,18.029737051487995,0.0,0.0,0.0,0.0,1,1,0
121, '1 ',1,12,17,0.0,0.0,0.0,0.0,0.0,0.0,1,1,0
122, '1 ',1,12,17,0.0,0.0,0.0,0.0,0.0,0.0,1,1,0
123, '1 ',1,12,15,0.0,0.0,0.0,0.0,0.0,0.0,1,1,0
124, '1 ',1,12,16,0.0,0.0,0.0,0.0,0.0,0.0,1,1,0
201, '1 ',1,21,21,54.966173420147214,17.94572458108552,0.0,0.0,0.0,0.0,1,1,0
202, '1 ',1,21,22,66.45647557517225,15.688895696726629,0.0,0.0,0.0,0.0,1,1,0
203, '1 ',1,21,21,155.6309411624316,30.90074941375153,0.0,0.0,0.0,0.0,1,1,0
204, '1 ',1,21,21,38.92994077854361,12.003019720835612,0.0,0.0,0.0,0.0,1,1,0
205, '1 ',1,21,21,46.97265647495622,7.48121136432141,0.0,0.0,0.0,0.0,1,1,0
206, '1 ',1,21,22,117.67905116963088,14.834157588396033,0.0,0.0,0.0,0.0,1,1,0
207, '1 ',1,21,22,66.32328969156369,21.139252498688872,0.0,0.0,0.0,0.0,1,1,0
208, '1 ',1,21,22,101.39212729530189,20.983312084702543,0.0,0.0,0.0,0.0,1,1,0
209, '1 ',1,21,23,117.24294723983388,31.013266537315022,0.0,0.0,0.0,0.0,1,1,0
210, '1 ',1,21,23,121.13676082166027,23.814646286644038,0.0,0.0,0.0,0.0,1,1,0
211, '1 ',1,21,23,0.0,0.0,0.0,0.0,0.0,0.0,1,1,0
212, '1 ',1,21,23,0.0,0.0,0.0,0.0,0.0,0.0,1,1,0
213, '1 ',1,22,24,130.4546804668056,39.75816886083092,0.0,0.0,0.0,0.0,1,1,0
214, '1 ',1,22,26,109.06886666488974,20.5443992368096,0.0,0.0,0.0,0.0,1,1,0
215, '1 ',1,22,26,235.03779504556258,36.35694350352287,0.0,0.0,0.0,0.0,1,1,0
216, '1 ',1,22,26,85.8851167127816,16.15784774710145,0.0,0.0,0.0,0.0,1,1,0
217, '1 ',1,22,27,0.0,0.0,0.0,0.0,0.0,0.0,1,1,0
218, '1 ',1,22,27,197.69819977396006,43.52980299571026,0.0,0.0,0.0,0.0,1,1,0
219, '1 ',1,22,25,120.87354346905329,20.8874082245185,0.0,0.0,0.0,0.0,1,1,0
220, '1 ',1,22,25,64.28694293562769,20.880375823180287,0.0,0.0,0.0,0.0,1,1,0
221, '1 ',1,22,27,0.0,0.0,0.0,0.0,0.0,0.0,1,1,0
222, '1 ',1,22,27,0.0,0.0,0.0,0.0,0.0,0.0,1,1,0
223, '1 ',1,22,25,0.0,0.0,0.0,0.0,0.0,0.0,1,1,0
224, '1 ',1,22,26,0.0,0.0,0.0,0.0,0.0,0.0,1,1,0
301, '1 ',1,31,31,57.65496763634942,14.489101063883119,0.0,0.0,0.0,0.0,1,1,0
302, '1 ',1,31,32,67.2843906338012,13.397940378419124,0.0,0.0,0.0,0.0,1,1,0
303, '1 ',1,31,31,161.7836530317301,21.491918718943605,0.0,0.0,0.0,0.0,1,1,0
304, '1 ',1,31,31,48.093696529133155,12.204617187201277,0.0,0.0,0.0,0.0,1,1,0
305, '1 ',1,31,31,53.515289007679286,9.751848983599618,0.0,0.0,0.0,0.0,1,1,0
306, '1 ',1,31,32,87.153678697671,20.769569296093472,0.0,0.0,0.0,0.0,1,1,0
307, '1 ',1,31,32,97.79410130858305,16.59845156549709,0.0,0.0,0.0,0.0,1,1,0
308, '1 ',1,31,32,151.54598102828683,18.00723242510576,0.0,0.0,0.0,0.0,1,1,0
309, '1 ',1,31,33,94.23419253850007,18.98445003527496,0.0,0.0,0.0,0.0,1,1,0
310, '1 ',1,31,33,121.64616815548901,34.972749563243234,0.0,0.0,0.0,0.0,1,1,0
311, '1 ',1,31,33,0.0,0.0,0.0,0.0,0.0,0.0,1,1,0
312, '1 ',1,31,33,0.0,0.0,0.0,0.0,0.0,0.0,1,1,0
313, '1 ',1,32,34,142.51398993914597,36.87573009749399,0.0,0.0,0.0,0.0,1,1,0
314, '1 ',1,32,36,134.72287109675528,28.166187304147286,0.0,0.0,0.0,0.0,1,1,0
315, '1 ',1,32,36,174.47155925747737,47.85107346711158,0.0,0.0,0.0,0.0,1,1,0
316, '1 ',1,32,36,62.749016945441255,14.028952414663507,0.0,0.0,0.0,0.0,1,1,0
317, '1 ',1,32,37,0.0,0.0,0.0,0.0,0.0,0.0,1,1,0
318, '1 ',1,32,37,289.4570692741713,53.83648752042801,0.0,0.0,0.0,0.0,1,1,0
319, '1 ',1,32,35,152.57497233008806,32.377961090297255,0.0,0.0,0.0,0.0,1,1,0
320, '1 ',1,32,35,75.77268797153233,15.154367997601815,0.0,0.0,0.0,0.0,1,1,0
321, '1 ',1,32,37,0.0,0.0,0.0,0.0,0.0,0.0,1,1,0
322, '1 ',1,32,37,0.0,0.0,0.0,0.0,0.0,0.0,1,1,0
323, '1 ',1,32,35,0.0,0.0,0.0,0.0,0.0,0.0,1,1,0
324, '1 ',1,32,36,0.0,0.0,0.0,0.0,0.0,0.0,1,1,0
325, '1 ',1,32,35,0.0,0.0,0.0,0.0,0.0,0.0,1,1,0
0 / END OF LOAD DATA, BEGIN FIXED SHUNT DATA
0 / END OF FIXED SHUNT DATA, BEGIN GENERATOR DATA
101,1,10,0,7.385251455940306,-2.853458561003208,1.035,0,24,0,1,0,0,1,1,100,19.812147649936378,16.68541218623519,1,1,0,1
101,2,10,0,12.315441612619908,1.8044537454843539,1.035,0,24,0,1,0,0,1,1,100,15.661823570728302,10.405198752228172,1,1,0,1
101,3,76,14.1,28.333334184251726,-27.822064735693857,1.035,0,89,0,1,0,0,1,1,100,64.2053724611178,18.04510732162744,1,1,0,1
101,4,76,14.1,22.831243952270594,-23.052083256654445,1.035,0,89,0,1,0,0,1,1,100,78.80531971808523,33.43136706542224,1,1,0,1
102,5,10,0,9.303382613230497,1.713222169317306,1.035,0,24,0,1,0,0,1,1,100,21.366426094435155,16.39710937825963,1,1,0,1
102,6,10,0,12.15715457778424,1.195218216162175,1.035,0,24,0,1,0,0,1,1,100,23.423682590946555,19.574212867785246,1,1,0,1
102,7,76,7,37.98294226638973,-10.353442063555121,1.035,0,89,0,1,0,0,1,1,100,76.5135265212506,0.17951181255280346,1,1,0,1
102,8,76,7,36.60031531518325,-31.378349537728354,1.035,0,89,0,1,0,0,1,1,100,93.13573781494051,41.94408808190376,1,1,0,1
107,9,80,17.2,65.81410706788301,23.03580010961742,1.025,0,118,0,1,0,0,1,1,100,120.13856340199709,50.28748949058354,1,1,0,1
107,10,80,17.2,46.23924744129181,-8.391264910809696,1.025,0,118,0,1,0,0,1,1,100,106.59597929101436,32.25838675512931,1,1,0,1
107,11,80,17.2,71.9942709999159,2.1119445143267512,1.025,0,118,0,1,0,0,1,1,100,125.01139900181441,40.467842054786146,1,1,0,1
113,12,95.1,40.7,73.73091430962086,-15.014771673828363,1.02,0,232,0,1,0,0,1,1,100,174.28418199229054,36.01035115915582,1,1,0,1
113,13,95.1,40.7,93.07837566360831,34.83617134764791,1.02,0,232,0,1,0,0,1,1,100,214.74021485848354,86.76473566031551,1,1,0,1
113,14,95.1,40.7,77.26558603346348,9.106429561972618,1.02,0,232,0,1,0,0,1,1,100,210.2882192946505,115.26670888967581,1,1,0,1
114,15,0,13.7,228.3903280552477,29.569438302423833,0.98,0,100,0,1,0,0,1,1,100,0.0,0.0,1,1,0,1
115,16,12,0,4.862225851323455,0.5542418061755594,1.014,0,14,0,1,0,0,1,1,100,9.618279436044395,6.361913853808901,1,1,0,1
115,17,12,0,6.0113705319352455,-0.09053487572818852,1.014,0,14,0,1,0,0,1,1,100,12.977968208491802,0.8572436848282816,1,1,0,1
115,18,12,0,5.030120520852506,-2.3105040388181806,1.014,0,14,0,1,0,0,1,1,100,15.527379851415755,4.116389186158779,1,1,0,1
115,19,12,0,6.463347071874886,0.58867494603619,1.014,0,14,0,1,0,0,1,1,100,12.871502452902497,3.4773494809493446,1,1,0,1
115,20,12,0,5.570446360297501,-1.751866154931486,1.014,0,14,0,1,0,0,1,1,100,8.998904410935937,6.911540168506576,1,1,0,1
115,21,155,0.05,98.26578471809626,-5.2283123708330095,1.014,0,182,0,1,0,0,1,1,100,133.70831690751947,18.17354472192237,1,1,0,1
116,22,155,25.22,83.95997227355838,-37.698230490554124,1.017,0,182,0,1,0,0,1,1,100,132.07300432142802,35.24847006293713,1,1,0,1
118,23,400,137.4,191.7901712935418,-123.60453336732462,1.05,0,471,0,1,0,0,1,1,100,465.70607328787446,132.62533137574792,1,1,0,1
121,24,400,108.2,211.6797675844282,2.72933740634474,1.05,0,471,0,1,0,0,1,1,100,486.55625646933913,114.66606356669217,1,1,0,1
122,25,50,-4.96,13.363086425513028,-15.983485834393651,1.05,0,53,0,1,0,0,1,1,100,60.473608875181526,18.806468099355698,1,1,0,1
122,26,50,-4.96,14.447685683518648,-8.563762312848121,1.05,0,53,0,1,0,0,1,1,100,38.7573152850382,8.05425521253957,1,1,0,1
122,27,50,-4.96,12.055896466225384,-9.676701518613847,1.05,0,53,0,1,0,0,1,1,100,59.61297451751306,20.564122635405504,1,1,0,1
122,28,50,-4.96,14.80941063761711,-5.141911171097307,1.05,0,53,0,1,0,0,1,1,100,36.353349692653865,28.752832900066505,1,1,0,1
122,29,50,-4.96,11.83805838227272,-18.070000257715584,1.05,0,53,0,1,0,0,1,1,100,38.7779425480403,0.8193505369126797,1,1,0,1
122,30,50,-4.96,12.64006618708372,-14.696182523760944,1.05,0,53,0,1,0,0,1,1,100,38.07574247010052,9.78668431813586,1,1,0,1
123,31,155,31.79,74.42254780977964,-20.55860907863824,1.05,0,182,0,1,0,0,1,1,100,149.91283896146342,65.99867356185568,1,1,0,1
123,32,155,31.79,87.84355874359608,-51.43657150818035,1.05,0,182,0,1,0,0,1,1,100,177.36682344134897,80.28424090397311,1,1,0,1
123,33,350,71.78,135.74250858044252,-6.196092683821888,1.05,0,412,0,1,0,0,1,1,100,454.45859279949224,283.9926726338455,1,1,0,1
201,34,10,0,7.144888107199221,-4.995450078975412,1.035,0,24,0,1,0,0,1,1,100,20.53144881501794,17.284433481441813,1,1,0,1
201,35,10,0,12.788490768987685,5.626657035201788,1.035,0,24,0,1,0,0,1,1,100,23.705363770015538,18.82977190614678,1,1,0,1
201,36,76,14.1,23.15717861568555,-31.53864740370773,1.035,0,89,0,1,0,0,1,1,100,59.1021127467975,22.130581935717018,1,1,0,1
201,37,76,14.1,22.054530113004144,-32.311353562399745,1.035,0,89,0,1,0,0,1,1,100,61.560914534516634,16.19846901852638,1,1,0,1
202,38,10,0,10.878591879736632,3.0817404105328023,1.035,0,24,0,1,0,0,1,1,100,18.165337380953133,13.011941470867024,1,1,0,1
202,39,10,0,10.060867219697684,2.4191031237132847,1.035,0,24,0,1,0,0,1,1,100,21.962791978381574,17.36515100597404,1,1,0,1
202,40,76,7,25.135713305789977,-16.64379881974309,1.035,0,89,0,1,0,0,1,1,100,85.61790921241045,19.86484173625709,1,1,0,1
202,41,76,7,31.95848691277206,-31.805178448557854,1.035,0,89,0,1,0,0,1,1,100,56.06033618133515,6.507320339940492,1,1,0,1
207,42,80,17.2,74.72798938304186,6.138610320165753,1.025,0,118,0,1,0,0,1,1,100,123.66647266782822,68.47966644098052,1,1,0,1
207,43,80,17.2,43.72619522362947,-3.009048127569258,1.025,0,118,0,1,0,0,1,1,100,92.54841986577958,28.216995468828827,1,1,0,1
207,44,80,17.2,74.33715849649161,-3.0774255814030766,1.025,0,118,0,1,0,0,1,1,100,117.01337936799973,55.778233868768446,1,1,0,1
213,45,95.1,40.7,102.68884098157287,8.73525346443057,1.02,0,232,0,1,0,0,1,1,100,170.78086467799733,71.20183707934805,1,1,0,1
213,46,95.1,40.7,56.92752611637115,-10.023486446589239,1.02,0,232,0,1,0,0,1,1,100,205.4612999705132,41.93311498771189,1,1,0,1
213,47,95.1,40.7,77.76358579099178,1.0319937877357006,1.02,0,232,0,1,0,0,1,1,100,195.72707843552342,73.67250353320499,1,1,0,1
214,48,0,13.68,147.3231568466872,-63.5507466038689,0.98,0,100,0,1,0,0,1,1,100,0.0,0.0,1,1,0,1
215,49,12,0,7.586955000367016,2.812832769099624,1.014,0,14,0,1,0,0,1,1,100,13.130984722450377,1.7262212372571248,1,1,0,1
215,50,12,0,6.687078584823758,1.9575064279139047,1.014,0,14,0,1,0,0,1,1,100,12.628154994919896,2.0451468861848117,1,1,0,1
215,51,12,0,6.147341141570359,1.0578182389028372,1.014,0,14,0,1,0,0,1,1,100,9.37968719266355,5.722536598742398,1,1,0,1
215,52,12,0,5.213136228360236,-0.09804193871095812,1.014,0,14,0,1,0,0,1,1,100,10.704833020828666,3.968543182276191,1,1,0,1
215,53,12,0,6.812641297280788,0.8904441685415794,1.014,0,14,0,1,0,0,1,1,100,8.60036533344537,7.817808488634347,1,1,0,1
215,54,155,0.048,79.84423727169633,-20.709504898171872,1.014,0,182,0,1,0,0,1,1,100,128.8556678404566,55.5410055018845,1,1,0,1
216,55,155,25.22,72.0745929889381,-62.08353041205555,1.017,0,182,0,1,0,0,1,1,100,114.8620149840135,36.27727041195611,1,1,0,1
218,56,400,137.4,148.53893055580556,-56.67830206919459,1.05,0,471,0,1,0,0,1,1,100,483.2458474487066,135.98383128643036,1,1,0,1
221,57,400,108.2,171.04146068915725,-135.41804068489,1.05,0,471,0,1,0,0,1,1,100,303.89209911227226,15.471864850260317,1,1,0,1
222,58,50,-4.96,19.986687321215868,-0.42351940572261526,1.05,0,53,0,1,0,0,1,1,100,55.92315241228789,49.59797944092649,1,1,0,1
222,59,50,-4.96,16.2002030916512,-4.121723423898221,1.05,0,53,0,1,0,0,1,1,100,43.63459223182872,13.838140594734414,1,1,0,1
222,60,50,-4.96,19.402347646653652,-14.362010919954628,1.05,0,53,0,1,0,0,1,1,100,35.39741842541844,19.393486961171572,1,1,0,1
222,61,50,-4.96,19.80440670102835,-8.891490354016423,1.05,0,53,0,1,0,0,1,1,100,38.27080351533368,36.3576044361583,1,1,0,1
222,62,50,-4.96,16.747331295907497,-12.361336250416937,1.05,0,53,0,1,0,0,1,1,100,40.23357922444119,20.668307678379612,1,1,0,1
222,63,50,-4.96,18.044599444419145,-15.225338154006753,1.05,0,53,0,1,0,0,1,1,100,56.29965921863913,17.688703439198427,1,1,0,1
223,64,155,31.79,75.17621149495244,-77.84563035145402,1.05,0,182,0,1,0,0,1,1,100,135.56259430176578,64.84330111772287,1,1,0,1
223,65,155,31.79,74.50238171592355,-90.14307346055284,1.05,0,182,0,1,0,0,1,1,100,198.9220486925915,94.55832569333724,1,1,0,1
223,66,350,71.78,159.17369546368718,-8.800934633472934,1.05,0,412,0,1,0,0,1,1,100,368.04934314219287,101.81507144402718,1,1,0,1
301,67,10,0,12.047673854976892,-0.8540105950087309,1.035,0,24,0,1,0,0,1,1,100,21.188083751127124,17.292896557422356,1,1,0,1
301,68,10,0,12.841848652809858,0.3238669065758568,1.035,0,24,0,1,0,0,1,1,100,20.067461613565683,16.890215227315203,1,1,0,1
301,69,76,14.1,32.68138418532908,-8.218366073910147,1.035,0,89,0,1,0,0,1,1,100,87.59060072414577,42.23355748288334,1,1,0,1
301,70,76,14.1,23.534065602812916,-24.367511826567352,1.035,0,89,0,1,0,0,1,1,100,60.0281801097095,32.01439900683025,1,1,0,1
302,71,10,0,12.892970212735237,0.2082668440416473,1.035,0,24,0,1,0,0,1,1,100,25.772839142009616,21.98440516838804,1,1,0,1
302,72,10,0,11.609902970958501,-0.7431194758974016,1.035,0,24,0,1,0,0,1,1,100,17.452400888316333,14.199323553824797,1,1,0,1
302,73,76,7,27.86835100175813,-15.091271261917427,1.035,0,89,0,1,0,0,1,1,100,57.858952396735546,15.465335728417577,1,1,0,1
302,74,76,7,27.978957732673734,-16.520798759069287,1.035,0,89,0,1,0,0,1,1,100,54.85744732934982,39.777198495283265,1,1,0,1
307,75,80,17.2,67.99591955635697,9.436026602983475,1.025,0,118,0,1,0,0,1,1,100,93.28088078647852,39.55667432397605,1,1,0,1
307,76,80,17.2,67.3279598839581,18.534584758803256,1.025,0,118,0,1,0,0,1,1,100,82.81424520071596,32.327678484831715,1,1,0,1
307,77,80,17.2,52.43853724189103,-17.876455851830542,1.025,0,118,0,1,0,0,1,1,100,87.08787336479872,56.68625816487544,1,1,0,1
313,78,95.1,40.7,88.91455575078726,-3.428304646164179,1.02,0,232,0,1,0,0,1,1,100,252.2810350668151,141.05929221642435,1,1,0,1
313,79,95.1,40.7,60.52893961593508,-21.08007140457631,1.02,0,232,0,1,0,0,1,1,100,250.94263069909064,127.05848707215625,1,1,0,1
313,80,95.1,40.7,65.2791503444314,-26.310861859470606,1.02,0,232,0,1,0,0,1,1,100,219.38559752507138,54.653518096262104,1,1,0,1
314,81,0,13.68,216.37040842324495,23.270683281589328,0.98,0,100,0,1,0,0,1,1,100,0.0,0.0,1,1,0,1
315,82,12,0,4.922158028092235,-0.4961619864217939,1.014,0,14,0,1,0,0,1,1,100,8.672595270909369,8.416064550323984,1,1,0,1
315,83,12,0,7.0895217265002435,0.9881493751890957,1.014,0,14,0,1,0,0,1,1,100,13.870852789096533,3.8465826609358196,1,1,0,1
315,84,12,0,6.985364860855043,2.7338693386875095,1.014,0,14,0,1,0,0,1,1,100,14.623173619620502,5.975665793828666,1,1,0,1
315,85,12,0,4.272510758880525,-1.8658288691192872,1.014,0,14,0,1,0,0,1,1,100,9.627769195474684,2.12128561722198,1,1,0,1
315,86,12,0,4.654916911572218,-0.32872839532792586,1.014,0,14,0,1,0,0,1,1,100,14.338593558222057,3.3138220278918773,1,1,0,1
315,87,155,0.048,100.06237244978547,-49.56138127669692,1.014,0,182,0,1,0,0,1,1,100,144.27266992325895,41.33847482076381,1,1,0,1
316,88,155,25.22,69.82107773050666,-23.141951012890786,1.017,0,182,0,1,0,0,1,1,100,110.85000278241931,34.25883139293873,1,1,0,1
318,89,400,137.4,207.96618958003822,-112.50597649021077,1.05,0,471,0,1,0,0,1,1,100,508.4173083491624,157.87078027147805,1,1,0,1
321,90,400,108.2,161.72576047480106,-58.7331723049283,1.05,0,471,0,1,0,0,1,1,100,351.44548431038857,64.03252087067813,1,1,0,1
322,91,50,-4.96,16.885482490062714,-6.417826752085237,1.05,0,53,0,1,0,0,1,1,100,36.61683249287307,19.70229959167089,1,1,0,1
322,92,50,-4.96,14.47392742857337,-5.855660234484821,1.05,0,53,0,1,0,0,1,1,100,64.92997229332104,27.495979922823608,1,1,0,1
322,93,50,-4.96,12.863252282887697,-8.85605339827016,1.05,0,53,0,1,0,0,1,1,100,47.51553548965603,12.346924731638342,1,1,0,1
322,94,50,-4.96,17.681125578284263,-4.846143688820302,1.05,0,53,0,1,0,0,1,1,100,45.060404036194086,22.264912214651325,1,1,0,1
322,95,50,-4.96,13.327281152456997,-15.642184496298434,1.05,0,53,0,1,0,0,1,1,100,64.8279183683917,8.550757358316346,1,1,0,1
322,96,50,-4.96,13.719351226836443,-12.463067910447718,1.05,0,53,0,1,0,0,1,1,100,46.85744124464691,6.910650632344186,1,1,0,1
323,97,155,31.79,97.26385584473611,-68.87364843022077,1.05,0,182,0,1,0,0,1,1,100,200.03874520072713,114.54698264683829,1,1,0,1
323,98,155,31.79,58.25315204262733,-52.98284903075547,1.05,0,182,0,1,0,0,1,1,100,110.12210897565818,3.7188299231929562,1,1,0,1
323,99,350,71.78,150.4547127149999,-48.79869114141914,1.05,0,412,0,1,0,0,1,1,100,408.77375811804086,242.11337317246944,1,1,0,1
0 / END OF GENERATOR DATA, BEGIN BRANCH DATA
101,102,1,0.003,0.014,0.461,210.0,231.6,240.0,0,0,0,0,1,1,0,1,1
101,103,1,0.055,0.211,0.057,210.0,249.6,264.0,0,0,0,0,1,1,0,1,1
101,105,1,0.022,0.085,0.023,210.0,249.6,264.0,0,0,0,0,1,1,0,1,1
102,104,1,0.033,0.127,0.034,210.0,249.6,264.0,0,0,0,0,1,1,0,1,1
102,106,1,0.05,0.192,0.052,210.0,249.6,264.0,0,0,0,0,1,1,0,1,1
103,109,1,0.031,0.119,0.032,210.0,249.6,264.0,0,0,0,0,1,1,0,1,1
104,109,1,0.027,0.104,0.028,210.0,249.6,264.0,0,0,0,0,1,1,0,1,1
105,110,1,0.023,0.088,0.024,210.0,249.6,264.0,0,0,0,0,1,1,0,1,1
106,110,1,0.014,0.061,2.459,210.0,231.6,240.0,0,0,0,0,1,1,0,1,1
107,108,1,0.016,0.061,0.017,210.0,249.6,264.0,0,0,0,0,1,1,0,1,1
107,203,1,0.042,0.161,0.044,210.0,249.6,264.0,0,0,0,0,1,1,0,1,1
108,109,1,0.043,0.165,0.045,210.0,249.6,264.0,0,0,0,0,1,1,0,1,1
108,110,1,0.043,0.165,0.045,210.0,249.6,264.0,0,0,0,0,1,1,0,1,1
111,113,1,0.006,0.048,0.1,600.0,720.0,750.0,0,0,0,0,1,1,0,1,1
111,114,1,0.005,0.042,0.088,600.0,720.0,750.0,0,0,0,0,1,1,0,1,1
112,113,1,0.006,0.048,0.1,600.0,720.0,750.0,0,0,0,0,1,1,0,1,1
112,123,1,0.012,0.097,0.203,600.0,720.0,750.0,0,0,0,0,1,1,0,1,1
113,123,1,0.011,0.087,0.182,600.0,720.0,750.0,0,0,0,0,1,1,0,1,1
113,215,1,0.01,0.075,0.158,600.0,720.0,750.0,0,0,0,0,1,1,0,1,1
114,116,1,0.005,0.059,0.082,600.0,720.0,750.0,0,0,0,0,1,1,0,1,1
115,116,1,0.002,0.017,0.036,600.0,720.0,750.0,0,0,0,0,1,1,0,1,1
115,121,1,0.006,0.049,0.103,600.0,720.0,750.0,0,0,0,0,1,1,0,1,1
115,121,2,0.006,0.049,0.103,600.0,720.0,750.0,0,0,0,0,1,1,0,1,1
115,124,1,0.007,0.052,0.109,600.0,720.0,750.0,0,0,0,0,1,1,0,1,1
116,117,1,0.003,0.026,0.055,600.0,720.0,750.0,0,0,0,0,1,1,0,1,1
116,119,1,0.003,0.023,0.049,600.0,720.0,750.0,0,0,0,0,1,1,0,1,1
117,118,1,0.002,0.014,0.03,600.0,720.0,750.0,0,0,0,0,1,1,0,1,1
117,122,1,0.014,0.105,0.221,600.0,720.0,750.0,0,0,0,0,1,1,0,1,1
118,121,1,0.003,0.026,0.055,600.0,720.0,750.0,0,0,0,0,1,1,0,1,1
118,121,2,0.003,0.026,0.055,600.0,720.0,750.0,0,0,0,0,1,1,0,1,1
119,120,1,0.005,0.04,0.083,600.0,720.0,750.0,0,0,0,0,1,1,0,1,1
119,120,2,0.005,0.04,0.083,600.0,720.0,750.0,0,0,0,0,1,1,0,1,1
120,123,1,0.003,0.022,0.046,600.0,720.0,750.0,0,0,0,0,1,1,0,1,1
120,123,2,0.003,0.022,0.046,600.0,720.0,750.0,0,0,0,0,1,1,0,1,1
121,122,1,0.009,0.068,0.142,600.0,720.0,750.0,0,0,0,0,1,1,0,1,1
123,217,1,0.01,0.074,0.155,600.0,720.0,750.0,0,0,0,0,1,1,0,1,1
201,202,1,0.003,0.014,0.461,210.0,231.6,240.0,0,0,0,0,1,1,0,1,1
201,203,1,0.055,0.211,0.057,210.0,249.6,264.0,0,0,0,0,1,1,0,1,1
201,205,1,0.022,0.085,0.023,210.0,249.6,264.0,0,0,0,0,1,1,0,1,1
202,204,1,0.033,0.127,0.034,210.0,249.6,264.0,0,0,0,0,1,1,0,1,1
202,206,1,0.05,0.192,0.052,210.0,249.6,264.0,0,0,0,0,1,1,0,1,1
203,209,1,0.031,0.119,0.032,210.0,249.6,264.0,0,0,0,0,1,1,0,1,1
204,209,1,0.027,0.104,0.028,210.0,249.6,264.0,0,0,0,0,1,1,0,1,1
205,210,1,0.023,0.088,0.024,210.0,249.6,264.0,0,0,0,0,1,1,0,1,1
206,210,1,0.014,0.061,2.459,210.0,231.6,240.0,0,0,0,0,1,1,0,1,1
207,208,1,0.016,0.061,0.017,210.0,249.6,264.0,0,0,0,0,1,1,0,1,1
208,209,1,0.043,0.165,0.045,210.0,249.6,264.0,0,0,0,0,1,1,0,1,1
208,210,1,0.043,0.165,0.045,210.0,249.6,264.0,0,0,0,0,1,1,0,1,1
211,213,1,0.006,0.048,0.1,600.0,720.0,750.0,0,0,0,0,1,1,0,1,1
211,214,1,0.005,0.042,0.088,600.0,720.0,750.0,0,0,0,0,1,1,0,1,1
212,213,1,0.006,0.048,0.1,600.0,720.0,750.0,0,0,0,0,1,1,0,1,1
212,223,1,0.012,0.097,0.203,600.0,720.0,750.0,0,0,0,0,1,1,0,1,1
213,223,1,0.011,0.087,0.182,600.0,720.0,750.0,0,0,0,0,1,1,0,1,1
214,216,1,0.005,0.059,0.082,600.0,720.0,750.0,0,0,0,0,1,1,0,1,1
215,216,1,0.002,0.017,0.036,600.0,720.0,750.0,0,0,0,0,1,1,0,1,1
215,221,1,0.006,0.049,0.103,600.0,720.0,750.0,0,0,0,0,1,1,0,1,1
215,221,2,0.006,0.049,0.103,600.0,720.0,750.0,0,0,0,0,1,1,0,1,1
215,224,1,0.007,0.052,0.109,600.0,720.0,750.0,0,0,0,0,1,1,0,1,1
216,217,1,0.003,0.026,0.055,600.0,720.0,750.0,0,0,0,0,1,1,0,1,1
216,219,1,0.003,0.023,0.049,600.0,720.0,750.0,0,0,0,0,1,1,0,1,1
217,218,1,0.002,0.014,0.03,600.0,720.0,750.0,0,0,0,0,1,1,0,1,1
217,222,1,0.014,0.105,0.221,600.0,720.0,750.0,0,0,0,0,1,1,0,1,1
218,221,1,0.003,0.026,0.055,600.0,720.0,750.0,0,0,0,0,1,1,0,1,1
218,221,2,0.003,0.026,0.055,600.0,720.0,750.0,0,0,0,0,1,1,0,1,1
219,220,1,0.005,0.04,0.083,600.0,720.0,750.0,0,0,0,0,1,1,0,1,1
219,220,2,0.005,0.04,0.083,600.0,720.0,750.0,0,0,0,0,1,1,0,1,1
220,223,1,0.003,0.022,0.046,600.0,720.0,750.0,0,0,0,0,1,1,0,1,1
220,223,2,0.003,0.022,0.046,600.0,720.0,750.0,0,0,0,0,1,1,0,1,1
221,222,1,0.009,0.068,0.142,600.0,720.0,750.0,0,0,0,0,1,1,0,1,1
301,302,1,0.003,0.014,0.461,210.0,231.6,240.0,0,0,0,0,1,1,0,1,1
301,303,1,0.055,0.211,0.057,210.0,249.6,264.0,0,0,0,0,1,1,0,1,1
301,305,1,0.022,0.085,0.023,210.0,249.6,264.0,0,0,0,0,1,1,0,1,1
302,304,1,0.033,0.127,0.034,210.0,249.6,264.0,0,0,0,0,1,1,0,1,1
302,306,1,0.05,0.192,0.052,210.0,249.6,264.0,0,0,0,0,1,1,0,1,1
303,309,1,0.031,0.119,0.032,210.0,249.6,264.0,0,0,0,0,1,1,0,1,1
304,309,1,0.027,0.104,0.028,210.0,249.6,264.0,0,0,0,0,1,1,0,1,1
305,310,1,0.023,0.088,0.024,210.0,249.6,264.0,0,0,0,0,1,1,0,1,1
306,310,1,0.014,0.061,2.459,210.0,231.6,240.0,0,0,0,0,1,1,0,1,1
307,308,1,0.016,0.061,0.017,210.0,249.6,264.0,0,0,0,0,1,1,0,1,1
308,309,1,0.043,0.165,0.045,210.0,249.6,264.0,0,0,0,0,1,1,0,1,1
308,310,1,0.043,0.165,0.045,210.0,249.6,264.0,0,0,0,0,1,1,0,1,1
311,313,1,0.006,0.048,0.1,600.0,720.0,750.0,0,0,0,0,1,1,0,1,1
311,314,1,0.005,0.042,0.088,600.0,720.0,750.0,0,0,0,0,1,1,0,1,1
312,313,1,0.006,0.048,0.1,600.0,720.0,750.0,0,0,0,0,1,1,0,1,1
312,323,1,0.012,0.097,0.203,600.0,720.0,750.0,0,0,0,0,1,1,0,1,1
313,323,1,0.011,0.087,0.182,600.0,720.0,750.0,0,0,0,0,1,1,0,1,1
314,316,1,0.005,0.059,0.082,600.0,720.0,750.0,0,0,0,0,1,1,0,1,1
315,316,1,0.002,0.017,0.036,600.0,720.0,750.0,0,0,0,0,1,1,0,1,1
315,321,1,0.006,0.049,0.103,600.0,720.0,750.0,0,0,0,0,1,1,0,1,1
315,321,2,0.006,0.049,0.103,600.0,720.0,750.0,0,0,0,0,1,1,0,1,1
315,324,1,0.007,0.052,0.109,600.0,720.0,750.0,0,0,0,0,1,1,0,1,1
316,317,1,0.003,0.026,0.055,600.0,720.0,750.0,0,0,0,0,1,1,0,1,1
316,319,1,0.003,0.023,0.049,600.0,720.0,750.0,0,0,0,0,1,1,0,1,1
317,318,1,0.002,0.014,0.03,600.0,720.0,750.0,0,0,0,0,1,1,0,1,1
317,322,1,0.014,0.105,0.221,600.0,720.0,750.0,0,0,0,0,1,1,0,1,1
318,223,1,0.013,0.104,0.218,600.0,720.0,750.0,0,0,0,0,1,1,0,1,1
318,321,1,0.003,0.026,0.055,600.0,720.0,750.0,0,0,0,0,1,1,0,1,1
318,321,2,0.003,0.026,0.055,600.0,720.0,750.0,0,0,0,0,1,1,0,1,1
319,320,1,0.005,0.04,0.083,600.0,720.0,750.0,0,0,0,0,1,1,0,1,1
319,320,2,0.005,0.04,0.083,600.0,720.0,750.0,0,0,0,0,1,1,0,1,1
320,323,1,0.003,0.022,0.046,600.0,720.0,750.0,0,0,0,0,1,1,0,1,1
320,323,2,0.003,0.022,0.046,600.0,720.0,750.0,0,0,0,0,1,1,0,1,1
321,322,1,0.009,0.068,0.142,600.0,720.0,750.0,0,0,0,0,1,1,0,1,1
323,325,1,0,0.009,0,866.4,1071.6,1071.6,0,0,0,0,1,1,0,1,1
0 / END OF BRANCH DATA, BEGIN TRANSFORMER DATA
  103 ,  124 , 0,  1 , 1, 1, 1, 0, 0, 2, '            ',  1 , 1, 1
   0.002000 ,  0.084000 ,  100.000000
   1.015000 , 0,  0.000000 ,  400.000000 ,  510.000000 ,  600.000000 , 0, 0,  1.10 ,  0.90 ,  1.10 ,  0.90 , 33, 0, 0, 0
   1.000000, 0
  109 ,  111 , 0,  1 , 1, 1, 1, 0, 0, 2, '            ',  1 , 1, 1
   0.002000 ,  0.084000 ,  100.000000
   1.030000 , 0,  0.000000 ,  400.000000 ,  510.000000 ,  600.000000 , 0, 0,  1.10 ,  0.90 ,  1.10 ,  0.90 , 33, 0, 0, 0
   1.000000, 0
  109 ,  112 , 0,  1 , 1, 1, 1, 0, 0, 2, '            ',  1 , 1, 1
   0.002000 ,  0.084000 ,  100.000000
   1.030000 , 0,  0.000000 ,  400.000000 ,  510.000000 ,  600.000000 , 0, 0,  1.10 ,  0.90 ,  1.10 ,  0.90 , 33, 0, 0, 0
   1.000000, 0
  110 ,  111 , 0,  1 , 1, 1, 1, 0, 0, 2, '            ',  1 , 1, 1
   0.002000 ,  0.084000 ,  100.000000
   1.015000 , 0,  0.000000 ,  400.000000 ,  510.000000 ,  600.000000 , 0, 0,  1.10 ,  0.90 ,  1.10 ,  0.90 , 33, 0, 0, 0
   1.000000, 0
  110 ,  112 , 0,  1 , 1, 1, 1, 0, 0, 2, '            ',  1 , 1, 1
   0.002000 ,  0.084000 ,  100.000000
   1.015000 , 0,  0.000000 ,  400.000000 ,  510.000000 ,  600.000000 , 0, 0,  1.10 ,  0.90 ,  1.10 ,  0.90 , 33, 0, 0, 0
   1.000000, 0
  203 ,  224 , 0,  1 , 1, 1, 1, 0, 0, 2, '            ',  1 , 1, 1
   0.002000 ,  0.084000 ,  100.000000
   1.015000 , 0,  0.000000 ,  400.000000 ,  510.000000 ,  600.000000 , 0, 0,  1.10 ,  0.90 ,  1.10 ,  0.90 , 33, 0, 0, 0
   1.000000, 0
  209 ,  211 , 0,  1 , 1, 1, 1, 0, 0, 2, '            ',  1 , 1, 1
   0.002000 ,  0.084000 ,  100.000000
   1.030000 , 0,  0.000000 ,  400.000000 ,  510.000000 ,  600.000000 , 0, 0,  1.10 ,  0.90 ,  1.10 ,  0.90 , 33, 0, 0, 0
   1.000000, 0
  209 ,  212 , 0,  1 , 1, 1, 1, 0, 0, 2, '            ',  1 , 1, 1
   0.002000 ,  0.084000 ,  100.000000
   1.030000 , 0,  0.000000 ,  400.000000 ,  510.000000 ,  600.000000 , 0, 0,  1.10 ,  0.90 ,  1.10 ,  0.90 , 33, 0, 0, 0
   1.000000, 0
  210 ,  211 , 0,  1 , 1, 1, 1, 0, 0, 2, '            ',  1 , 1, 1
   0.002000 ,  0.084000 ,  100.000000
   1.015000 , 0,  0.000000 ,  400.000000 ,  510.000000 ,  600.000000 , 0, 0,  1.10 ,  0.90 ,  1.10 ,  0.90 , 33, 0, 0, 0
   1.000000, 0
  210 ,  212 , 0,  1 , 1, 1, 1, 0, 0, 2, '            ',  1 , 1, 1
   0.002000 ,  0.084000 ,  100.000000
   1.015000 , 0,  0.000000 ,  400.000000 ,  510.000000 ,  600.000000 , 0, 0,  1.10 ,  0.90 ,  1.10 ,  0.90 , 33, 0, 0, 0
   1.000000, 0
  303 ,  324 , 0,  1 , 1, 1, 1, 0, 0, 2, '            ',  1 , 1, 1
   0.002000 ,  0.084000 ,  100.000000
   1.015000 , 0,  0.000000 ,  400.000000 ,  510.000000 ,  600.000000 , 0, 0,  1.10 ,  0.90 ,  1.10 ,  0.90 , 33, 0, 0, 0
   1.000000, 0
  309 ,  311 , 0,  1 , 1, 1, 1, 0, 0, 2, '            ',  1 , 1, 1
   0.002000 ,  0.084000 ,  100.000000
   1.030000 , 0,  0.000000 ,  400.000000 ,  510.000000 ,  600.000000 , 0, 0,  1.10 ,  0.90 ,  1.10 ,  0.90 , 33, 0, 0, 0
   1.000000, 0
  309 ,  312 , 0,  1 , 1, 1, 1, 0, 0, 2, '            ',  1 , 1, 1
   0.002000 ,  0.084000 ,  100.000000
   1.030000 , 0,  0.000000 ,  400.000000 ,  510.000000 ,  600.000000 , 0, 0,  1.10 ,  0.90 ,  1.10 ,  0.90 , 33, 0, 0, 0
   1.000000, 0
  310 ,  311 , 0,  1 , 1, 1, 1, 0, 0, 2, '            ',  1 , 1, 1
   0.002000 ,  0.084000 ,  100.000000
   1.015000 , 0,  0.000000 ,  400.000000 ,  510.000000 ,  600.000000 , 0, 0,  1.10 ,  0.90 ,  1.10 ,  0.90 , 33, 0, 0, 0
   1.000000, 0
  310 ,  312 , 0,  1 , 1, 1, 1, 0, 0, 2, '            ',  1 , 1, 1
   0.002000 ,  0.084000 ,  100.000000
   1.015000 , 0,  0.000000 ,  400.000000 ,  510.000000 ,  600.000000 , 0, 0,  1.10 ,  0.90 ,  1.10 ,  0.90 , 33, 0, 0, 0
   1.000000, 0
0 / END OF TRANSFORMER DATA, BEGIN AREA DATA
0 / END OF AREA DATA, BEGIN TWO-TERMINAL DC DATA
0 / END OF TWO-TERMINAL DC DATA, BEGIN VSC DC LINE DATA
0 / END OF VSC DC LINE DATA, BEGIN SWITCHED SHUNT DATA
0 / END OF SWITCHED SHUNT DATA, BEGIN IMPEDANCE CORRECTION DATA
0 / END OF IMPEDANCE CORRECTION DATA, BEGIN MULTI-TERMINAL DC DATA
0 / END OF MULTI-TERMINAL DC DATA, BEGIN MULTI-SECTION LINE DATA
0 / END OF MULTI-SECTION LINE DATA, BEGIN ZONE DATA
0 / END OF ZONE DATA, BEGIN INTER-AREA TRANSFER DATA
0 / END OF INTER-AREA TRANSFER DATA, BEGIN OWNER DATA
0 / END OF OWNER DATA, BEGIN FACTS CONTROL DEVICE DATA
0 / END OF FACTS CONTROL DEVICE DATA
0 / END OF SWITCHED SHUNT DATA, BEGIN GNE DATA
0 / END OF GNE DATA, BEGIN INDUCTION MACHINE DATA
0 / END OF INDUCTION MACHINE DATA
Q 
